<?xml version="1.0" encoding="UTF-8"?>

<!-- generated on 2025-05-03 20:53:16 by Eclipse SUMO sumo Version 1.22.0
-->

<sumoConfiguration xmlns:xsi="http://www.w3.org/2001/XMLSchema-instance" xsi:noNamespaceSchemaLocation="http://sumo.dlr.de/xsd/sumoConfiguration.xsd">

    <input>
        <net-file value="FourWay.net.xml"/>
        <route-files value="FourWay.rou.xml"/>
        <additional-files value="FourWay.add.xml"/>
    </input>

</sumoConfiguration>
