<?xml version="1.0" encoding="UTF-8"?>

<!-- generated on 2025-05-03 20:53:16 by Eclipse SUMO netedit Version 1.22.0
-->

<routes xmlns:xsi="http://www.w3.org/2001/XMLSchema-instance" xsi:noNamespaceSchemaLocation="http://sumo.dlr.de/xsd/routes_file.xsd">
    <!-- Vehicles, persons and containers (sorted by depart) -->
    <flow id="f_0" begin="0.00" departLane="free" from="-E2" to="E7" via="E3" end="50000.00" vehsPerHour="75"/>
    <flow id="f_1" begin="0.00" departLane="free" color="blue" from="E1" to="E4" end="50000.00" vehsPerHour="75"/>
    <flow id="f_10" begin="0.00" departLane="free" color="0,128,0" from="-E7" to="E6" end="50000.00" vehsPerHour="75"/>
    <flow id="f_11" begin="0.00" departLane="free" color="0,0,128" from="-E7" to="E4" via="-E3" end="50000.00" vehsPerHour="75"/>
    <flow id="f_12" begin="0.00" departLane="free" color="cyan" from="-E4" to="E2" end="50000.00" vehsPerHour="75"/>
    <flow id="f_13" begin="0.00" departLane="free" color="0,128,128" from="-E4" to="E6" via="E3" end="50000.00" vehsPerHour="75"/>
    <flow id="f_14" begin="0.00" departLane="free" color="cyan" from="-E4" to="-E5" via="E3" end="50000.00" vehsPerHour="75"/>
    <flow id="f_15" begin="0.00" departLane="free" color="cyan" from="-E4" to="E7" via="E3" end="50000.00" vehsPerHour="75"/>
    <flow id="f_16" begin="0.00" departLane="free" color="cyan" from="-E6" to="E7" end="50000.00" vehsPerHour="75"/>
    <flow id="f_17" begin="0.00" departLane="free" color="0,128,0" from="-E6" to="-E1" via="-E3" end="50000.00" vehsPerHour="75"/>
    <flow id="f_18" begin="0.00" departLane="free" color="magenta" from="-E6" to="E4" via="-E3" end="50000.00" vehsPerHour="75"/>
    <flow id="f_19" begin="0.00" departLane="free" color="green" from="-E6" to="E2" via="-E3" end="50000.00" vehsPerHour="75"/>
    <flow id="f_2" begin="0.00" departLane="free" color="red" from="-E7" to="E2" via="-E3" end="50000.00" vehsPerHour="75"/>
    <flow id="f_20" begin="0.00" departLane="free" color="cyan" from="E5" to="E2" via="-E3" end="50000.00" vehsPerHour="75"/>
    <flow id="f_21" begin="0.00" departLane="free" color="128,0,0" from="E1" to="E2" end="50000.00" vehsPerHour="75"/>
    <flow id="f_22" begin="0.00" departLane="free" color="0,128,0" from="-E2" to="E6" via="E3" end="50000.00" vehsPerHour="75"/>
    <flow id="f_23" begin="0.00" departLane="free" color="0,128,128" from="E1" to="E7" via="E3" end="50000.00" vehsPerHour="75"/>
    <flow id="f_24" begin="0.00" departLane="free" color="128,0,128" from="-E2" to="-E5" via="E3" end="50000.00" vehsPerHour="75"/>
    <flow id="f_25" begin="0.00" departLane="free" color="128,0,0" from="E1" to="E6" via="E3" end="50000.00" vehsPerHour="75"/>
    <flow id="f_26" begin="0.00" departLane="free" color="green" from="E1" to="-E5" via="E3" end="50000.00" vehsPerHour="75"/>
    <flow id="f_27" begin="0.00" departLane="free" from="E5" to="E7" end="50000.00" vehsPerHour="75"/>
    <flow id="f_28" begin="0.00" departLane="free" color="128,128,0" from="E5" to="-E1" via="-E3" end="50000.00" vehsPerHour="75"/>
    <flow id="f_29" begin="0.00" departLane="free" color="red" from="E5" to="E4" via="-E3" end="50000.00" vehsPerHour="75"/>
    <flow id="f_3" begin="0.00" departLane="free" color="green" from="-E4" to="-E1" end="50000.00" vehsPerHour="75"/>
    <flow id="f_4" begin="0.00" departLane="free" color="0,128,0" from="E5" to="E6" end="50000.00" vehsPerHour="75"/>
    <flow id="f_5" begin="0.00" departLane="free" color="0,0,128" from="-E6" to="-E5" end="50000.00" vehsPerHour="75"/>
    <flow id="f_6" begin="0.00" departLane="free" color="cyan" from="-E2" to="-E1" end="50000.00" vehsPerHour="75"/>
    <flow id="f_7" begin="0.00" departLane="free" color="cyan" from="-E2" to="E4" end="50000.00" vehsPerHour="75"/>
    <flow id="f_8" begin="0.00" departLane="free" color="cyan" from="-E7" to="-E5" end="50000.00" vehsPerHour="75"/>
    <flow id="f_9" begin="0.00" departLane="free" color="magenta" from="-E7" to="-E1" via="-E3" end="50000.00" vehsPerHour="75"/>
</routes>
